[General]
cmdenv-express-mode = true
cmdenv-autoflush = true
cmdenv-status-frequency = 10s
#cmdenv-status-frequency = 10000000s

#tkenv-default-config = debug
#tkenv-default-run = 1
ned-path = .

network = "org.car2x.veins.modules.application.ExtTraCIScenarioManagerLaunchd.IntersectionExampleScenario"
repeat = 20


##########################################################
#            Simulation parameters                       #
##########################################################
debug-on-errors = false
print-undisposed = false

#sim-time-limit = 27900s # start time + 900 sec (15 min) # sim-time-limit = 34200s

sim-time-limit = 2400s  # 40 minutos
#sim-time-limit = 1800s # 30 minutos
#sim-time-limit = 1200s # 20 minutos
#sim-time-limit = 600s  # 10 minutos

**.scalar-recording = true
**.vector-recording = true

**.debug = false
**.coreDebug = false

*.playgroundSizeX = 8500m
*.playgroundSizeY = 8500m
*.playgroundSizeZ = 50m


##########################################################
# Annotation parameters                                  #
##########################################################
*.annotations.draw = false


##########################################################
#            WorldUtility parameters                     #
##########################################################
*.world.useTorus = false
*.world.use2D = false


##########################################################
#            TraCIScenarioManager parameters             #
##########################################################
# when does the simulation start?
#*.manager.connectAt = 28800000ms 

*.manager.updateInterval = 250ms	# Intervalo entre pasos de simulacion
*.manager.host = "localhost"
*.manager.port = 9999
*.manager.moduleType = "org.car2x.veins.nodes.Car"
*.manager.moduleName = "node"
*.manager.moduleDisplayString = ""
*.manager.autoShutdown = true
*.manager.margin = 25
*.manager.launchConfig = xmldoc("paramics.launchd.xml")


##########################################################
#                       RSU SETTINGS                     #
#                                                        #
#                                                        #
##########################################################
#*.rsu[0].mobility.x = 2000
#*.rsu[0].mobility.y = 2000
#*.rsu[0].mobility.z = 3
#*.rsu[*].applType = "TraCIDemoRSU11p"
#*.rsu[*].appl.debug = false
#*.rsu[*].appl.headerLength = 256 bit
#*.rsu[*].appl.sendBeacons = false
#*.rsu[*].appl.dataOnSch = false
#*.rsu[*].appl.sendData = true
#*.rsu[*].appl.beaconInterval = 1s
#*.rsu[*].appl.beaconPriority = 3
#*.rsu[*].appl.dataPriority = 2
#*.rsu[*].appl.maxOffset = 0.005s


##########################################################
#            11p specific parameters                     #
#                                                        #
#                    NIC-Settings                        #
##########################################################
*.connectionManager.pMax = 20mW
*.connectionManager.sat = -89dBm
*.connectionManager.alpha = 2.0
*.connectionManager.carrierFrequency = 5.890e9 Hz
*.connectionManager.sendDirect = true

*.**.nic.mac1609_4.useServiceChannel = false

*.**.nic.mac1609_4.txPower = 20mW
*.**.nic.mac1609_4.bitrate = 18Mbps

*.**.nic.mac1609_4.scalar-recording = false
*.**.nic.mac1609_4.vector-recording = false

*.**.nic.phy80211p.sensitivity = -89dBm
*.**.nic.phy80211p.useThermalNoise = true
*.**.nic.phy80211p.thermalNoise = -110dBm
*.**.nic.phy80211p.decider = xmldoc("config.xml")
*.**.nic.phy80211p.analogueModels = xmldoc("config.xml")
*.**.nic.phy80211p.usePropagationDelay = true


##########################################################
#                    WaveAppLayer                        #
##########################################################
*.node[*].applType = "Tokens"

*.node[*].appl.debug = false
*.node[*].appl.headerLength = 256 bit
*.node[*].appl.sendBeacons = false
*.node[*].appl.dataOnSch = false
*.node[*].appl.sendData = true
*.node[*].appl.beaconInterval = 1s
*.node[*].appl.beaconPriority = 3
*.node[*].appl.dataPriority = 2
*.node[*].appl.maxOffset = 0.005s

# BasicExample settings
#*.node[*].appl.AccidentCar = "20363"
#*.node[*].appl.AccidentRoad = "40:5" # frente al costanera
#*.node[*].appl.AlternativeRoad = "40:7"
#*.node[*].appl.AccidentDistance = 45.00
#*.node[*].appl.AffectedDestinations = "1 2 3 4 5 6 7 8 9 23 24 25 26"
#*.node[*].appl.AffectedRoads = "90:40 54:40 50:40"
#*.node[*].appl.WarningInterval = 5

# CrossRoad settings
*.node[*].appl.share_data_radio = 110.0
*.node[*].appl.token_selection_radio = 55

# Tokens settings
*.node[*].appl.k_velocity = 1
*.node[*].appl.k_idle_time = 1
*.node[*].appl.k_distance = 1
*.node[*].appl.k_cars = 1


##########################################################
#                      Mobility                          #
##########################################################
*.node[*].veinsmobilityType = "org.car2x.veins.modules.mobility.traci.TraCIMobility"
*.node[*].mobilityType = "TraCIMobility"
*.node[*].mobilityType.debug = true
*.node[*].veinsmobilityType.debug = true
*.node[*].veinsmobility.x = 0
*.node[*].veinsmobility.y = 0
*.node[*].veinsmobility.z = 1.895
*.node[*0].veinsmobility.accidentCount = 0
*.node[*0].veinsmobility.accidentStart = 75s
*.node[*0].veinsmobility.accidentDuration = 30s

[Config nodebug]
description = "default settings"
**.debug = false
**.coreDebug = false
*.annotations.draw = false

[Config debug]
description = "(very slow!) draw and print additional debug information"
**.debug = true
**.coreDebug = true
*.annotations.draw = false